/*--------------------------------*- C++ -*----------------------------------*\
| =========                 |                                                 |
| \\      /  F ield         | OpenFOAM: The Open Source CFD Toolbox           |
|  \\    /   O peration     | Version:  2.2.0                                 |
|   \\  /    A nd           | Web:      www.OpenFOAM.org                      |
|    \\/     M anipulation  |                                                 |
\*---------------------------------------------------------------------------*/
FoamFile
{
    version     2.0;
    format      ascii;
    class       dictionary;
    object      fvSchemes;
}
// * * * * * * * * * * * * * * * * * * * * * * * * * * * * * * * * * * * * * //

ddtSchemes
{
    default              Euler;
}

interpolationSchemes
{
    default              linear;
}

divSchemes
{
    default                      none;
    div(rhoPhi,U)                Gauss blended            0.05;
    div(phi,alpha)               Gauss limitedLinear01    1;
    div(phirb,alpha)             Gauss limitedLinear01    1;
    div(MIXED)                   Gauss linear;
    div((muEff*dev(T(grad(U))))) Gauss linear;
}

gradSchemes
{
    default              Gauss linear;
}

laplacianSchemes
{
    default              Gauss linear limited corrected 0.5;
}

snGradSchemes
{
    default              corrected;
}

fluxRequired
{
    default              none;
    p_rgh;
    pcorr;
    alpha1;
}

// ************************************************************************* //
